Info: SIMULATION PARAMETERS:
Info: TIMESTEP               2
Info: NUMBER OF STEPS        0
Info: STEPS PER CYCLE        10
Info: PERIODIC CELL BASIS 1  88.797 0 0
Info: PERIODIC CELL BASIS 2  0 79.225 0
Info: PERIODIC CELL BASIS 3  0 0 92.057
Info: PERIODIC CELL CENTER   -2.9189 41.938 13.8542
Info: WRAPPING WATERS AROUND PERIODIC BOUNDARIES ON OUTPUT.
Info: WRAPPING ALL CLUSTERS AROUND PERIODIC BOUNDARIES ON OUTPUT.
Info: FIRST LDB TIMESTEP     50
Info: LAST LDB TIMESTEP     -1
Info: HOM BACKGROUND SCALING 1
Info: PME BACKGROUND SCALING 1
Info: MIN ATOMS PER PATCH    40
Info: VELOCITY FILE          min_inhi.vel
Info: CENTER OF MASS MOVING INITIALLY? NO
Info: DIELECTRIC             1
Info: EXCLUDE                SCALED ONE-FOUR
Info: 1-4 ELECTROSTATICS SCALED BY 1
Info: MODIFIED 1-4 VDW PARAMETERS WILL BE USED
Info: DCD FILENAME           min_backbone.dcd
Info: DCD FREQUENCY          1000
Info: DCD FIRST STEP         1000
Info: DCD FILE WILL CONTAIN UNIT CELL DATA
Info: XST FILENAME           min_backbone.xst
Info: XST FREQUENCY          1000
Info: NO VELOCITY DCD OUTPUT
Info: NO FORCE DCD OUTPUT
Info: OUTPUT FILENAME        min_backbone
Info: RESTART FILENAME       min_backbone_res
Info: RESTART FREQUENCY      1000
Info: BINARY RESTART FILES WILL BE USED
Info: SWITCHING ACTIVE
Info: SWITCHING ON           10
Info: SWITCHING OFF          12
Info: PAIRLIST DISTANCE      14
Info: PAIRLIST SHRINK RATE   0.01
Info: PAIRLIST GROW RATE     0.01
Info: PAIRLIST TRIGGER       0.3
Info: PAIRLISTS PER CYCLE    2
Info: PAIRLISTS ENABLED
Info: MARGIN                 0
Info: HYDROGEN GROUP CUTOFF  2.5
Info: PATCH DIMENSION        16.5
Info: ENERGY OUTPUT STEPS    100
Info: CROSSTERM ENERGY INCLUDED IN DIHEDRAL
Info: TIMING OUTPUT STEPS    200
Info: PRESSURE OUTPUT STEPS  100
Info: FIXED ATOMS ACTIVE
Info: PARTICLE MESH EWALD (PME) ACTIVE
Info: PME TOLERANCE               1e-06
Info: PME EWALD COEFFICIENT       0.257952
Info: PME INTERPOLATION ORDER     4
Info: PME GRID DIMENSIONS         96 80 96
Info: PME MAXIMUM GRID SPACING    1
Info: FULL ELECTROSTATIC EVALUATION FREQUENCY      2
Info: USING VERLET I (r-RESPA) MTS SCHEME.
Info: C1 SPLITTING OF LONG RANGE ELECTROSTATICS
Info: PLACING ATOMS IN PATCHES BY HYDROGEN GROUPS
Info: RIGID BONDS TO HYDROGEN : ALL
Info:         ERROR TOLERANCE : 1e-08
Info:          MAX ITERATIONS : 100
Info: RIGID WATER USING SETTLE ALGORITHM
Info: RANDOM NUMBER SEED     1747320646
Info: USE HYDROGEN BONDS?    NO
Info: COORDINATE PDB         min_inhi.coor
Info: STRUCTURE FILE         CaNi_ion.psf
Info: PARAMETER file: CHARMM format!
Info: PARAMETERS             par_all36m_prot.prm
Info: PARAMETERS             par_all36_carb.prm
Info: PARAMETERS             par_all36_lipid.prm
Info: PARAMETERS             par_all36_cgenff.prm
Info: PARAMETERS             par_all36_na.prm
Info: PARAMETERS             par_all36_lipid_ljpme.prm
Info: PARAMETERS             par_hbond.inp
Info: PARAMETERS             par_water_ions.str
Info: PARAMETERS             lig.prm
Info: USING ARITHMETIC MEAN TO COMBINE L-J SIGMA PARAMETERS
Info: SUMMARY OF PARAMETERS:
Info: 1166 BONDS
Info: 3815 ANGLES
Info: 10434 DIHEDRAL
Info: 275 IMPROPER
Info: 6 CROSSTERM
Info: 389 VDW
Info: 74 VDW_PAIRS
Info: 0 NBTHOLE_PAIRS
Info: STRUCTURE SUMMARY:
Info: 60647 ATOMS
Info: 41683 BONDS
Info: 25895 ANGLES
Info: 10249 DIHEDRALS
Info: 659 IMPROPERS
Info: 238 CROSSTERMS
Info: 0 EXCLUSIONS
Info: 952 FIXED ATOMS
Info: 58594 RIGID BONDS
Info: 0 RIGID BONDS BETWEEN FIXED ATOMS
Info: 120491 DEGREES OF FREEDOM
Info: 20949 HYDROGEN GROUPS
Info: 4 ATOMS IN LARGEST HYDROGEN GROUP
Info: 20949 MIGRATION GROUPS
Info: 4 ATOMS IN LARGEST MIGRATION GROUP
Info: 482 HYDROGEN GROUPS WITH ALL ATOMS FIXED
Info: TOTAL MASS = 371311 amu
Info: TOTAL CHARGE = 3.04729e-06 e
Info: MASS DENSITY = 0.952094 g/cm^3
Info: ATOM DENSITY = 0.0936466 atoms/A^3
Info: ADDED 77663 IMPLICIT EXCLUSIONS
Info: NONBONDED TABLE R-SQUARED SPACING: 0.0625
Info: NONBONDED TABLE SIZE: 769 POINTS
Info: REMOVING COM VELOCITY 0 0 0
TCL: Minimizing for 1000 steps
ETITLE: TS BOND ANGLE DIHED IMPRP ELECT VDW BOUNDARY MISC KINETIC TOTAL TEMP POTENTIAL TOTAL3 TEMPAVG PRESSURE GPRESSURE VOLUME PRESSAVG GPRESSAVG
ENERGY: 0 517.1477 1406.6734 2117.4966 26.9427 -277743.0703 24425.5507 0.0000 0.0000 0.0000 -249249.2591 0.0000 -249249.2591 -249249.2591 0.0000 17688.9848 -28135.9333 647615.6403 17688.9848 -28135.9333
ENERGY: 200 130.5233 584.7161 2093.1515 25.2441 -280105.9229 24690.6314 0.0000 0.0000 0.0000 -252581.6565 0.0000 -252581.6565 -252581.6565 0.0000 18090.4785 -5044.8189 647615.6403 18090.4785 -5044.8189
ENERGY: 400 121.8304 560.5440 2083.6045 19.5782 -282196.3001 25437.6959 0.0000 0.0000 0.0000 -253973.0470 0.0000 -253973.0470 -253973.0470 0.0000 18449.7111 -4881.1580 647615.6403 18449.7111 -4881.1580
ENERGY: 600 123.1505 572.9633 2078.9123 18.7601 -285171.7930 26846.7312 0.0000 0.0000 0.0000 -255531.2757 0.0000 -255531.2757 -255531.2757 0.0000 19178.4539 -4421.1704 647615.6403 19178.4539 -4421.1704
ENERGY: 800 135.3459 575.1057 2075.9846 19.9313 -286887.2433 27448.4587 0.0000 0.0000 0.0000 -256632.4172 0.0000 -256632.4172 -256632.4172 0.0000 19450.9025 -4312.7103 647615.6403 19450.9025 -4312.7103
ENERGY: 1000 117.8917 567.2620 2076.1315 19.2812 -287756.6630 27690.0565 0.0000 0.0000 0.0000 -257286.0400 0.0000 -257286.0400 -257286.0400 0.0000 19558.7479 -4290.1738 647615.6403 19558.7479 -4290.1738
