Info: SIMULATION PARAMETERS:
Info: TIMESTEP               2
Info: NUMBER OF STEPS        0
Info: STEPS PER CYCLE        10
Info: PERIODIC CELL BASIS 1  88.797 0 0
Info: PERIODIC CELL BASIS 2  0 79.225 0
Info: PERIODIC CELL BASIS 3  0 0 92.057
Info: PERIODIC CELL CENTER   -2.9189 41.938 13.8542
Info: WRAPPING WATERS AROUND PERIODIC BOUNDARIES ON OUTPUT.
Info: WRAPPING ALL CLUSTERS AROUND PERIODIC BOUNDARIES ON OUTPUT.
Info: FIRST LDB TIMESTEP     50
Info: LAST LDB TIMESTEP     -1
Info: HOM BACKGROUND SCALING 1
Info: PME BACKGROUND SCALING 1
Info: MIN ATOMS PER PATCH    40
Info: VELOCITY FILE          min_backbone.vel
Info: CENTER OF MASS MOVING INITIALLY? NO
Info: DIELECTRIC             1
Info: EXCLUDE                SCALED ONE-FOUR
Info: 1-4 ELECTROSTATICS SCALED BY 1
Info: MODIFIED 1-4 VDW PARAMETERS WILL BE USED
Info: DCD FILENAME           min_all.dcd
Info: DCD FREQUENCY          1000
Info: DCD FIRST STEP         1000
Info: DCD FILE WILL CONTAIN UNIT CELL DATA
Info: XST FILENAME           min_all.xst
Info: XST FREQUENCY          1000
Info: NO VELOCITY DCD OUTPUT
Info: NO FORCE DCD OUTPUT
Info: OUTPUT FILENAME        min_all
Info: RESTART FILENAME       min_all_res
Info: RESTART FREQUENCY      1000
Info: BINARY RESTART FILES WILL BE USED
Info: SWITCHING ACTIVE
Info: SWITCHING ON           10
Info: SWITCHING OFF          12
Info: PAIRLIST DISTANCE      14
Info: PAIRLIST SHRINK RATE   0.01
Info: PAIRLIST GROW RATE     0.01
Info: PAIRLIST TRIGGER       0.3
Info: PAIRLISTS PER CYCLE    2
Info: PAIRLISTS ENABLED
Info: MARGIN                 0
Info: HYDROGEN GROUP CUTOFF  2.5
Info: PATCH DIMENSION        16.5
Info: ENERGY OUTPUT STEPS    100
Info: CROSSTERM ENERGY INCLUDED IN DIHEDRAL
Info: TIMING OUTPUT STEPS    200
Info: PRESSURE OUTPUT STEPS  100
Info: PARTICLE MESH EWALD (PME) ACTIVE
Info: PME TOLERANCE               1e-06
Info: PME EWALD COEFFICIENT       0.257952
Info: PME INTERPOLATION ORDER     4
Info: PME GRID DIMENSIONS         96 80 96
Info: PME MAXIMUM GRID SPACING    1
Info: FULL ELECTROSTATIC EVALUATION FREQUENCY      2
Info: USING VERLET I (r-RESPA) MTS SCHEME.
Info: C1 SPLITTING OF LONG RANGE ELECTROSTATICS
Info: PLACING ATOMS IN PATCHES BY HYDROGEN GROUPS
Info: RIGID BONDS TO HYDROGEN : ALL
Info:         ERROR TOLERANCE : 1e-08
Info:          MAX ITERATIONS : 100
Info: RIGID WATER USING SETTLE ALGORITHM
Info: RANDOM NUMBER SEED     1747322146
Info: USE HYDROGEN BONDS?    NO
Info: COORDINATE PDB         min_backbone.coor
Info: STRUCTURE FILE         CaNi_ion.psf
Info: PARAMETER file: CHARMM format!
Info: PARAMETERS             par_all36m_prot.prm
Info: PARAMETERS             par_all36_carb.prm
Info: PARAMETERS             par_all36_lipid.prm
Info: PARAMETERS             par_all36_cgenff.prm
Info: PARAMETERS             par_all36_na.prm
Info: PARAMETERS             par_all36_lipid_ljpme.prm
Info: PARAMETERS             par_hbond.inp
Info: PARAMETERS             par_water_ions.str
Info: PARAMETERS             lig.prm
Info: USING ARITHMETIC MEAN TO COMBINE L-J SIGMA PARAMETERS
Info: SUMMARY OF PARAMETERS:
Info: 1166 BONDS
Info: 3815 ANGLES
Info: 10434 DIHEDRAL
Info: 275 IMPROPER
Info: 6 CROSSTERM
Info: 389 VDW
Info: 74 VDW_PAIRS
Info: 0 NBTHOLE_PAIRS
Info: STRUCTURE SUMMARY:
Info: 60647 ATOMS
Info: 41683 BONDS
Info: 25895 ANGLES
Info: 10249 DIHEDRALS
Info: 659 IMPROPERS
Info: 238 CROSSTERMS
Info: 0 EXCLUSIONS
Info: 58594 RIGID BONDS
Info: 123344 DEGREES OF FREEDOM
Info: 20949 HYDROGEN GROUPS
Info: 4 ATOMS IN LARGEST HYDROGEN GROUP
Info: 20949 MIGRATION GROUPS
Info: 4 ATOMS IN LARGEST MIGRATION GROUP
Info: TOTAL MASS = 371311 amu
Info: TOTAL CHARGE = 3.04729e-06 e
Info: MASS DENSITY = 0.952094 g/cm^3
Info: ATOM DENSITY = 0.0936466 atoms/A^3
Info: ADDED 77663 IMPLICIT EXCLUSIONS
Info: NONBONDED TABLE R-SQUARED SPACING: 0.0625
Info: NONBONDED TABLE SIZE: 769 POINTS
Info: REMOVING COM VELOCITY 0 0 0
TCL: Minimizing for 1000 steps
ETITLE: TS BOND ANGLE DIHED IMPRP ELECT VDW BOUNDARY MISC KINETIC TOTAL TEMP POTENTIAL TOTAL3 TEMPAVG PRESSURE GPRESSURE VOLUME PRESSAVG GPRESSAVG
ENERGY: 0 12501.8854 1641.6170 2189.6294 88.7364 -272897.7922 27526.1990 0.0000 0.0000 0.0000 -228949.7250 0.0000 -228949.7250 -228949.7250 0.0000 17781.3798 -29929.7283 647615.6403 17781.3798 -29929.7283
ENERGY: 200 5600.1424 1936.5655 2202.9997 43.4685 -273037.3604 27675.5569 0.0000 0.0000 0.0000 -235578.6274 0.0000 -235578.6274 -235578.6274 0.0000 18476.8668 -5387.9870 647615.6403 18476.8668 -5387.9870
ENERGY: 400 2677.7604 1569.6661 2190.8730 36.4375 -273300.1267 27802.1565 0.0000 0.0000 0.0000 -239023.2331 0.0000 -239023.2331 -239023.2331 0.0000 18926.5073 -4958.0018 647615.6403 18926.5073 -4958.0018
ENERGY: 600 1164.2533 1218.4398 2192.4903 38.1504 -273677.1735 27871.0798 0.0000 0.0000 0.0000 -241192.7598 0.0000 -241192.7598 -241192.7598 0.0000 19229.7860 -4700.9721 647615.6403 19229.7860 -4700.9721
ENERGY: 800 477.1129 958.1904 2214.2991 36.1988 -274249.8763 28034.4327 0.0000 0.0000 0.0000 -242529.6424 0.0000 -242529.6424 -242529.6424 0.0000 19484.6087 -4497.9072 647615.6403 19484.6087 -4497.9072
ENERGY: 1000 271.7230 751.1961 2231.1969 38.7306 -275109.5700 28311.1035 0.0000 0.0000 0.0000 -243505.6198 0.0000 -243505.6198 -243505.6198 0.0000 19729.0415 -4338.4898 647615.6403 19729.0415 -4338.4898
