Info: SIMULATION PARAMETERS:
Info: TIMESTEP               2
Info: NUMBER OF STEPS        0
Info: STEPS PER CYCLE        10
Info: PERIODIC CELL BASIS 1  88.797 0 0
Info: PERIODIC CELL BASIS 2  0 79.225 0
Info: PERIODIC CELL BASIS 3  0 0 92.057
Info: PERIODIC CELL CENTER   -2.9189 41.938 13.8542
Info: WRAPPING WATERS AROUND PERIODIC BOUNDARIES ON OUTPUT.
Info: WRAPPING ALL CLUSTERS AROUND PERIODIC BOUNDARIES ON OUTPUT.
Info: FIRST LDB TIMESTEP     50
Info: LAST LDB TIMESTEP     -1
Info: HOM BACKGROUND SCALING 1
Info: PME BACKGROUND SCALING 1
Info: MIN ATOMS PER PATCH    40
Info: INITIAL TEMPERATURE    0
Info: CENTER OF MASS MOVING INITIALLY? NO
Info: DIELECTRIC             1
Info: EXCLUDE                SCALED ONE-FOUR
Info: 1-4 ELECTROSTATICS SCALED BY 1
Info: MODIFIED 1-4 VDW PARAMETERS WILL BE USED
Info: DCD FILENAME           min_pro.dcd
Info: DCD FREQUENCY          1000
Info: DCD FIRST STEP         1000
Info: DCD FILE WILL CONTAIN UNIT CELL DATA
Info: XST FILENAME           min_pro.xst
Info: XST FREQUENCY          1000
Info: NO VELOCITY DCD OUTPUT
Info: NO FORCE DCD OUTPUT
Info: OUTPUT FILENAME        min_pro
Info: RESTART FILENAME       min_pro_res
Info: RESTART FREQUENCY      1000
Info: BINARY RESTART FILES WILL BE USED
Info: SWITCHING ACTIVE
Info: SWITCHING ON           10
Info: SWITCHING OFF          12
Info: PAIRLIST DISTANCE      14
Info: PAIRLIST SHRINK RATE   0.01
Info: PAIRLIST GROW RATE     0.01
Info: PAIRLIST TRIGGER       0.3
Info: PAIRLISTS PER CYCLE    2
Info: PAIRLISTS ENABLED
Info: MARGIN                 0
Info: HYDROGEN GROUP CUTOFF  2.5
Info: PATCH DIMENSION        16.5
Info: ENERGY OUTPUT STEPS    100
Info: CROSSTERM ENERGY INCLUDED IN DIHEDRAL
Info: TIMING OUTPUT STEPS    200
Info: PRESSURE OUTPUT STEPS  100
Info: FIXED ATOMS ACTIVE
Info: PARTICLE MESH EWALD (PME) ACTIVE
Info: PME TOLERANCE               1e-06
Info: PME EWALD COEFFICIENT       0.257952
Info: PME INTERPOLATION ORDER     4
Info: PME GRID DIMENSIONS         96 80 96
Info: PME MAXIMUM GRID SPACING    1
Info: FULL ELECTROSTATIC EVALUATION FREQUENCY      2
Info: USING VERLET I (r-RESPA) MTS SCHEME.
Info: C1 SPLITTING OF LONG RANGE ELECTROSTATICS
Info: PLACING ATOMS IN PATCHES BY HYDROGEN GROUPS
Info: RIGID BONDS TO HYDROGEN : ALL
Info:         ERROR TOLERANCE : 1e-08
Info:          MAX ITERATIONS : 100
Info: RIGID WATER USING SETTLE ALGORITHM
Info: RANDOM NUMBER SEED     1747318524
Info: USE HYDROGEN BONDS?    NO
Info: COORDINATE PDB         CaNi_ion.pdb
Info: STRUCTURE FILE         CaNi_ion.psf
Info: PARAMETER file: CHARMM format!
Info: PARAMETERS             par_all36m_prot.prm
Info: PARAMETERS             par_all36_carb.prm
Info: PARAMETERS             par_all36_lipid.prm
Info: PARAMETERS             par_all36_cgenff.prm
Info: PARAMETERS             par_all36_na.prm
Info: PARAMETERS             par_all36_lipid_ljpme.prm
Info: PARAMETERS             par_hbond.inp
Info: PARAMETERS             par_water_ions.str
Info: PARAMETERS             lig.prm
Info: USING ARITHMETIC MEAN TO COMBINE L-J SIGMA PARAMETERS
Info: SUMMARY OF PARAMETERS:
Info: 1166 BONDS
Info: 3815 ANGLES
Info: 10434 DIHEDRAL
Info: 275 IMPROPER
Info: 6 CROSSTERM
Info: 389 VDW
Info: 74 VDW_PAIRS
Info: 0 NBTHOLE_PAIRS
Info: STRUCTURE SUMMARY:
Info: 60647 ATOMS
Info: 41683 BONDS
Info: 25895 ANGLES
Info: 10249 DIHEDRALS
Info: 659 IMPROPERS
Info: 238 CROSSTERMS
Info: 0 EXCLUSIONS
Info: 3823 FIXED ATOMS
Info: 58594 RIGID BONDS
Info: 1892 RIGID BONDS BETWEEN FIXED ATOMS
Info: 113770 DEGREES OF FREEDOM
Info: 20949 HYDROGEN GROUPS
Info: 4 ATOMS IN LARGEST HYDROGEN GROUP
Info: 20949 MIGRATION GROUPS
Info: 4 ATOMS IN LARGEST MIGRATION GROUP
Info: 1931 HYDROGEN GROUPS WITH ALL ATOMS FIXED
Info: TOTAL MASS = 371311 amu
Info: TOTAL CHARGE = 3.04729e-06 e
Info: MASS DENSITY = 0.952094 g/cm^3
Info: ATOM DENSITY = 0.0936466 atoms/A^3
Info: ADDED 77663 IMPLICIT EXCLUSIONS
Info: NONBONDED TABLE R-SQUARED SPACING: 0.0625
Info: NONBONDED TABLE SIZE: 769 POINTS
Info: REMOVING COM VELOCITY 0 0 0
TCL: Minimizing for 1000 steps
ETITLE: TS BOND ANGLE DIHED IMPRP ELECT VDW BOUNDARY MISC KINETIC TOTAL TEMP POTENTIAL TOTAL3 TEMPAVG PRESSURE GPRESSURE VOLUME PRESSAVG GPRESSAVG
ENERGY: 0 2.1654 3.2393 12.5133 0.0000 -200959.3339 13265112.6867 0.0000 0.0000 0.0000 13064171.2709 0.0000 13064171.2709 13064171.2709 0.0000 5704969.3740 5914875.3114 647615.6403 5704969.3740 5914875.3114
ENERGY: 200 45.1977 40.8441 11.3231 0.0000 -238322.2500 13578.5720 0.0000 0.0000 0.0000 -224646.3131 0.0000 -224646.3131 -224646.3131 0.0000 12580.7660 -6921.5529 647615.6403 12580.7660 -6921.5529
ENERGY: 400 71.2799 42.4742 10.8416 0.0000 -251744.3320 16394.3091 0.0000 0.0000 0.0000 -235225.4272 0.0000 -235225.4272 -235225.4272 0.0000 13567.0883 -7189.6006 647615.6403 13567.0883 -7189.6006
ENERGY: 600 24.0144 27.7621 12.2419 0.0000 -259583.8063 18962.4949 0.0000 0.0000 0.0000 -240557.2931 0.0000 -240557.2931 -240557.2931 0.0000 14657.2843 -6835.6568 647615.6403 14657.2843 -6835.6568
ENERGY: 800 47.8220 49.6637 11.8943 0.0000 -267935.2077 22466.0240 0.0000 0.0000 0.0000 -245359.8037 0.0000 -245359.8037 -245359.8037 0.0000 16271.4316 -5999.3105 647615.6403 16271.4316 -5999.3105
ENERGY: 1000 20.7640 26.2880 11.9647 0.0000 -273347.9001 24417.5792 0.0000 0.0000 0.0000 -248871.3042 0.0000 -248871.3042 -248871.3042 0.0000 17174.0492 -5598.3966 647615.6403 17174.0492 -5598.3966
