Info: SIMULATION PARAMETERS:
Info: TIMESTEP               2
Info: NUMBER OF STEPS        0
Info: STEPS PER CYCLE        10
Info: PERIODIC CELL BASIS 1  88.797 0 0
Info: PERIODIC CELL BASIS 2  0 79.225 0
Info: PERIODIC CELL BASIS 3  0 0 92.057
Info: PERIODIC CELL CENTER   -2.9189 41.938 13.8542
Info: WRAPPING WATERS AROUND PERIODIC BOUNDARIES ON OUTPUT.
Info: WRAPPING ALL CLUSTERS AROUND PERIODIC BOUNDARIES ON OUTPUT.
Info: FIRST LDB TIMESTEP     50
Info: LAST LDB TIMESTEP     -1
Info: HOM BACKGROUND SCALING 1
Info: PME BACKGROUND SCALING 1
Info: MIN ATOMS PER PATCH    40
Info: VELOCITY FILE          min_pro.vel
Info: CENTER OF MASS MOVING INITIALLY? NO
Info: DIELECTRIC             1
Info: EXCLUDE                SCALED ONE-FOUR
Info: 1-4 ELECTROSTATICS SCALED BY 1
Info: MODIFIED 1-4 VDW PARAMETERS WILL BE USED
Info: DCD FILENAME           min_inhi.dcd
Info: DCD FREQUENCY          1000
Info: DCD FIRST STEP         1000
Info: DCD FILE WILL CONTAIN UNIT CELL DATA
Info: XST FILENAME           min_inhi.xst
Info: XST FREQUENCY          1000
Info: NO VELOCITY DCD OUTPUT
Info: NO FORCE DCD OUTPUT
Info: OUTPUT FILENAME        min_inhi
Info: RESTART FILENAME       min_inhi_res
Info: RESTART FREQUENCY      1000
Info: BINARY RESTART FILES WILL BE USED
Info: SWITCHING ACTIVE
Info: SWITCHING ON           10
Info: SWITCHING OFF          12
Info: PAIRLIST DISTANCE      14
Info: PAIRLIST SHRINK RATE   0.01
Info: PAIRLIST GROW RATE     0.01
Info: PAIRLIST TRIGGER       0.3
Info: PAIRLISTS PER CYCLE    2
Info: PAIRLISTS ENABLED
Info: MARGIN                 0
Info: HYDROGEN GROUP CUTOFF  2.5
Info: PATCH DIMENSION        16.5
Info: ENERGY OUTPUT STEPS    100
Info: CROSSTERM ENERGY INCLUDED IN DIHEDRAL
Info: TIMING OUTPUT STEPS    200
Info: PRESSURE OUTPUT STEPS  100
Info: FIXED ATOMS ACTIVE
Info: PARTICLE MESH EWALD (PME) ACTIVE
Info: PME TOLERANCE               1e-06
Info: PME EWALD COEFFICIENT       0.257952
Info: PME INTERPOLATION ORDER     4
Info: PME GRID DIMENSIONS         96 80 96
Info: PME MAXIMUM GRID SPACING    1
Info: FULL ELECTROSTATIC EVALUATION FREQUENCY      2
Info: USING VERLET I (r-RESPA) MTS SCHEME.
Info: C1 SPLITTING OF LONG RANGE ELECTROSTATICS
Info: PLACING ATOMS IN PATCHES BY HYDROGEN GROUPS
Info: RIGID BONDS TO HYDROGEN : ALL
Info:         ERROR TOLERANCE : 1e-08
Info:          MAX ITERATIONS : 100
Info: RIGID WATER USING SETTLE ALGORITHM
Info: RANDOM NUMBER SEED     1747320094
Info: USE HYDROGEN BONDS?    NO
Info: COORDINATE PDB         min_pro.coor
Info: STRUCTURE FILE         CaNi_ion.psf
Info: PARAMETER file: CHARMM format!
Info: PARAMETERS             par_all36m_prot.prm
Info: PARAMETERS             par_all36_carb.prm
Info: PARAMETERS             par_all36_lipid.prm
Info: PARAMETERS             par_all36_cgenff.prm
Info: PARAMETERS             par_all36_na.prm
Info: PARAMETERS             par_all36_lipid_ljpme.prm
Info: PARAMETERS             par_hbond.inp
Info: PARAMETERS             par_water_ions.str
Info: PARAMETERS             lig.prm
Info: USING ARITHMETIC MEAN TO COMBINE L-J SIGMA PARAMETERS
Info: SUMMARY OF PARAMETERS:
Info: 1166 BONDS
Info: 3815 ANGLES
Info: 10434 DIHEDRAL
Info: 275 IMPROPER
Info: 6 CROSSTERM
Info: 389 VDW
Info: 74 VDW_PAIRS
Info: 0 NBTHOLE_PAIRS
Info: STRUCTURE SUMMARY:
Info: 60647 ATOMS
Info: 41683 BONDS
Info: 25895 ANGLES
Info: 10249 DIHEDRALS
Info: 659 IMPROPERS
Info: 238 CROSSTERMS
Info: 0 EXCLUSIONS
Info: 26 FIXED ATOMS
Info: 58594 RIGID BONDS
Info: 14 RIGID BONDS BETWEEN FIXED ATOMS
Info: 123283 DEGREES OF FREEDOM
Info: 20949 HYDROGEN GROUPS
Info: 4 ATOMS IN LARGEST HYDROGEN GROUP
Info: 20949 MIGRATION GROUPS
Info: 4 ATOMS IN LARGEST MIGRATION GROUP
Info: 12 HYDROGEN GROUPS WITH ALL ATOMS FIXED
Info: TOTAL MASS = 371311 amu
Info: TOTAL CHARGE = 3.04729e-06 e
Info: MASS DENSITY = 0.952094 g/cm^3
Info: ATOM DENSITY = 0.0936466 atoms/A^3
Info: ADDED 77663 IMPLICIT EXCLUSIONS
Info: NONBONDED TABLE R-SQUARED SPACING: 0.0625
Info: NONBONDED TABLE SIZE: 769 POINTS
Info: REMOVING COM VELOCITY 0 0 0
TCL: Minimizing for 1000 steps
ETITLE: TS BOND ANGLE DIHED IMPRP ELECT VDW BOUNDARY MISC KINETIC TOTAL TEMP POTENTIAL TOTAL3 TEMPAVG PRESSURE GPRESSURE VOLUME PRESSAVG GPRESSAVG
ENERGY: 0 986513.4691 1176.6369 2258.3806 907.1301 -261301.6751 24891.9103 0.0000 0.0000 0.0000 754445.8519 0.0000 754445.8519 754445.8519 0.0000 -53606.6397 -99015.7041 647615.6403 -53606.6397 -99015.7041
ENERGY: 200 203659.9670 2639.0090 2240.5712 69.9691 -261393.8131 25942.4706 0.0000 0.0000 0.0000 -26841.8263 0.0000 -26841.8263 -26841.8263 0.0000 2785.1355 -19855.9058 647615.6403 2785.1355 -19855.9058
ENERGY: 400 52057.8766 4289.4436 2230.9697 55.3265 -261636.4038 24450.5408 0.0000 0.0000 0.0000 -178552.2466 0.0000 -178552.2466 -178552.2466 0.0000 12968.5314 -9762.7931 647615.6403 12968.5314 -9762.7931
ENERGY: 600 33087.1094 3605.3693 2247.5990 151.2167 -261987.6781 24346.4018 0.0000 0.0000 0.0000 -198549.9819 0.0000 -198549.9819 -198549.9819 0.0000 14432.7341 -8351.0535 647615.6403 14432.7341 -8351.0535
ENERGY: 800 20639.0635 2854.3555 2230.0975 69.8081 -262416.5398 24220.6897 0.0000 0.0000 0.0000 -212402.5256 0.0000 -212402.5256 -212402.5256 0.0000 15474.6536 -7362.9262 647615.6403 15474.6536 -7362.9262
ENERGY: 1000 12879.9768 2454.8933 2219.0954 96.4259 -262940.3193 24247.4658 0.0000 0.0000 0.0000 -221042.4621 0.0000 -221042.4621 -221042.4621 0.0000 16162.6215 -6729.6056 647615.6403 16162.6215 -6729.6056
